29920 29919
  -OEChem-01181713513D

 23 24  0     0  0  0  0  0  0999 V2000
   16.9583   17.8502   10.2353 C   0  0  0  0  0  0  0  0  0  0  0  0
   15.9884   18.7284    9.7645 C   0  0  0  0  0  0  0  0  0  0  0  0
   13.4284   22.2629    9.0818 C   0  0  0  0  0  0  0  0  0  0  0  0
   14.3383   21.3628    9.6252 C   0  0  0  0  0  0  0  0  0  0  0  0
   18.2759   18.2791   10.2365 C   0  0  0  0  0  0  0  0  0  0  0  0
   17.7049   20.3239    9.3582 C   0  0  0  0  0  0  0  0  0  0  0  0
   14.6559   22.1942    7.0458 C   0  0  0  0  0  0  0  0  0  0  0  0
   16.3606   19.9908    9.3158 C   0  0  0  0  0  0  0  0  0  0  0  0
   13.5832   22.6915    7.7681 C   0  0  0  0  0  0  0  0  0  0  0  0
   15.3772   20.9247    8.8198 C   0  0  0  0  0  0  0  0  0  0  0  0
   12.6491   23.6304    7.1722 C   0  0  0  0  0  0  0  0  0  0  0  0
   18.6755   19.4977    9.8086 N   0  0  0  0  0  0  0  0  0  0  0  0
   15.5601   21.3187    7.5395 N   0  0  0  0  0  0  0  0  0  0  0  0
   11.6671   24.1241    7.7389 O   0  0  0  0  0  0  0  0  0  0  0  0
   12.9631   23.9318    5.8814 O   0  0  0  0  0  0  0  0  0  0  0  0
   16.6924   16.8611   10.5902 H   0  0  0  0  0  0  0  0  0  0  0  0
   14.9474   18.4153    9.7512 H   0  0  0  0  0  0  0  0  0  0  0  0
   12.6037   22.6252    9.6896 H   0  0  0  0  0  0  0  0  0  0  0  0
   14.2252   21.0238   10.6500 H   0  0  0  0  0  0  0  0  0  0  0  0
   19.0699   17.6318   10.5941 H   0  0  0  0  0  0  0  0  0  0  0  0
   18.0605   21.2933    9.0207 H   0  0  0  0  0  0  0  0  0  0  0  0
   14.8288   22.4912    6.0157 H   0  0  0  0  0  0  0  0  0  0  0  0
   12.3381   24.5659    5.4697 H   0  0  0  0  0  0  0  0  0  0  0  0
  1  2  1  0  0  0  0
  1  5  2  0  0  0  0
  2  8  2  0  0  0  0
  3  4  2  0  0  0  0
  3  9  1  0  0  0  0
  4 10  1  0  0  0  0
  5 12  1  0  0  0  0
  6  8  1  0  0  0  0
  6 12  2  0  0  0  0
  7  9  2  0  0  0  0
  7 13  1  0  0  0  0
  8 10  1  0  0  0  0
  9 11  1  0  0  0  0
 10 13  2  0  0  0  0
 11 14  2  0  0  0  0
 11 15  1  0  0  0  0
  1 16  1  0  0  0  0
  2 17  1  0  0  0  0
  3 18  1  0  0  0  0
  4 19  1  0  0  0  0
  5 20  1  0  0  0  0
  6 21  1  0  0  0  0
  7 22  1  0  0  0  0
 15 23  1  0  0  0  0
M  END
> <FRED Chemgauss4 score>
-9.052688

$$$$
10022 10021
  -OEChem-01181713513D

 28 29  0     1  0  0  0  0  0999 V2000
    9.4061   26.4812    7.9484 C   0  0  0  0  0  0  0  0  0  0  0  0
    8.2115   25.3528    8.8681 C   0  0  0  0  0  0  0  0  0  0  0  0
    9.4030   27.3685    9.4625 C   0  0  0  0  0  0  0  0  0  0  0  0
    7.8646   25.8353    7.6087 C   0  0  1  0  0  0  0  0  0  0  0  0
    7.6973   27.3755    8.6416 C   0  0  2  0  0  0  0  0  0  0  0  0
   10.4904   26.1079    8.6552 C   0  0  1  0  0  0  0  0  0  0  0  0
    9.6329   25.0963    7.3756 C   0  0  0  0  0  0  0  0  0  0  0  0
   11.8126   26.6883    8.1937 C   0  0  0  0  0  0  0  0  0  0  0  0
   10.0921   25.1782    5.8595 C   0  0  0  0  0  0  0  0  0  0  0  0
    9.9333   23.5926    7.7308 C   0  0  0  0  0  0  0  0  0  0  0  0
    9.4221   27.3684    7.0719 O   0  0  0  0  0  0  0  0  0  0  0  0
    7.4169   28.5435    7.8917 O   0  0  0  0  0  0  0  0  0  0  0  0
    8.2318   24.2706    8.8770 H   0  0  0  0  0  0  0  0  0  0  0  0
    7.8214   25.6641    9.8388 H   0  0  0  0  0  0  0  0  0  0  0  0
    9.8356   28.3777    9.3752 H   0  0  0  0  0  0  0  0  0  0  0  0
    9.2827   27.0843   10.5174 H   0  0  0  0  0  0  0  0  0  0  0  0
    6.9948   25.3743    7.1421 H   0  0  0  0  0  0  0  0  0  0  0  0
    6.9253   27.2855    9.4199 H   0  0  0  0  0  0  0  0  0  0  0  0
   12.6276   26.3284    8.8263 H   0  0  0  0  0  0  0  0  0  0  0  0
   11.7879   27.7794    8.2459 H   0  0  0  0  0  0  0  0  0  0  0  0
   12.0177   26.3940    7.1616 H   0  0  0  0  0  0  0  0  0  0  0  0
   11.0732   24.7532    5.8092 H   0  0  0  0  0  0  0  0  0  0  0  0
   10.0904   26.2140    5.5903 H   0  0  0  0  0  0  0  0  0  0  0  0
    9.3824   24.6152    5.2895 H   0  0  0  0  0  0  0  0  0  0  0  0
   10.9710   23.4129    7.5211 H   0  0  0  0  0  0  0  0  0  0  0  0
    9.2982   22.9831    7.1157 H   0  0  0  0  0  0  0  0  0  0  0  0
    9.7151   23.4579    8.7736 H   0  0  0  0  0  0  0  0  0  0  0  0
    6.5245   28.4367    7.5204 H   0  0  0  0  0  0  0  0  0  0  0  0
  1  2  1  0  0  0  0
  1  6  1  0  0  0  0
  1 11  2  0  0  0  0
  2  4  1  0  0  0  0
  3  5  1  0  0  0  0
  3  6  1  0  0  0  0
  4  5  1  0  0  0  0
  4  7  1  6  0  0  0
  5 12  1  6  0  0  0
  6  7  1  0  0  0  0
  6  8  1  1  0  0  0
  7  9  1  0  0  0  0
  7 10  1  0  0  0  0
  2 13  1  0  0  0  0
  2 14  1  0  0  0  0
  3 15  1  0  0  0  0
  3 16  1  0  0  0  0
  4 17  1  0  0  0  0
  5 18  1  0  0  0  0
  8 19  1  0  0  0  0
  8 20  1  0  0  0  0
  8 21  1  0  0  0  0
  9 22  1  0  0  0  0
  9 23  1  0  0  0  0
  9 24  1  0  0  0  0
 10 25  1  0  0  0  0
 10 26  1  0  0  0  0
 10 27  1  0  0  0  0
 12 28  1  0  0  0  0
M  END
> <FRED Chemgauss4 score>
-6.640086

$$$$
10022 10021
  -OEChem-01181713513D

 28 29  0     1  0  0  0  0  0999 V2000
   11.0106   24.0930    5.8711 C   0  0  0  0  0  0  0  0  0  0  0  0
   10.6105   25.7677    5.1142 C   0  0  0  0  0  0  0  0  0  0  0  0
   12.5473   24.3846    5.0811 C   0  0  0  0  0  0  0  0  0  0  0  0
    9.7138   24.7198    4.9154 C   0  0  1  0  0  0  0  0  0  0  0  0
   11.1300   24.1612    3.8352 C   0  0  1  0  0  0  0  0  0  0  0  0
   11.8536   24.5933    6.7917 C   0  0  1  0  0  0  0  0  0  0  0  0
   10.0076   24.7416    6.8204 C   0  0  0  0  0  0  0  0  0  0  0  0
   12.4092   23.5892    7.7819 C   0  0  0  0  0  0  0  0  0  0  0  0
    9.1333   23.6354    7.5453 C   0  0  0  0  0  0  0  0  0  0  0  0
    9.6779   26.0283    7.6634 C   0  0  0  0  0  0  0  0  0  0  0  0
   10.7918   22.8769    5.7063 O   0  0  0  0  0  0  0  0  0  0  0  0
   11.3177   24.9075    2.6486 O   0  0  0  0  0  0  0  0  0  0  0  0
   10.1610   26.6009    5.6378 H   0  0  0  0  0  0  0  0  0  0  0  0
   11.2925   26.2047    4.3858 H   0  0  0  0  0  0  0  0  0  0  0  0
   13.1797   23.4831    5.0284 H   0  0  0  0  0  0  0  0  0  0  0  0
   13.1387   25.2706    4.8110 H   0  0  0  0  0  0  0  0  0  0  0  0
    8.7704   25.0513    4.4820 H   0  0  0  0  0  0  0  0  0  0  0  0
   11.0279   23.0986    3.5693 H   0  0  0  0  0  0  0  0  0  0  0  0
   13.0811   24.0830    8.4883 H   0  0  0  0  0  0  0  0  0  0  0  0
   12.9673   22.8084    7.2595 H   0  0  0  0  0  0  0  0  0  0  0  0
   11.5979   23.1200    8.3439 H   0  0  0  0  0  0  0  0  0  0  0  0
    9.3470   23.7065    8.5919 H   0  0  0  0  0  0  0  0  0  0  0  0
    9.4300   22.6899    7.1403 H   0  0  0  0  0  0  0  0  0  0  0  0
    8.1087   23.8587    7.3304 H   0  0  0  0  0  0  0  0  0  0  0  0
    9.9175   25.8135    8.6882 H   0  0  0  0  0  0  0  0  0  0  0  0
    8.6309   26.2349    7.5417 H   0  0  0  0  0  0  0  0  0  0  0  0
   10.2820   26.8294    7.2801 H   0  0  0  0  0  0  0  0  0  0  0  0
   12.1467   24.5989    2.2435 H   0  0  0  0  0  0  0  0  0  0  0  0
  1  2  1  0  0  0  0
  1  6  1  0  0  0  0
  1 11  2  0  0  0  0
  2  4  1  0  0  0  0
  3  5  1  0  0  0  0
  3  6  1  0  0  0  0
  4  5  1  0  0  0  0
  4  7  1  6  0  0  0
  5 12  1  1  0  0  0
  6  7  1  0  0  0  0
  6  8  1  1  0  0  0
  7  9  1  0  0  0  0
  7 10  1  0  0  0  0
  2 13  1  0  0  0  0
  2 14  1  0  0  0  0
  3 15  1  0  0  0  0
  3 16  1  0  0  0  0
  4 17  1  0  0  0  0
  5 18  1  0  0  0  0
  8 19  1  0  0  0  0
  8 20  1  0  0  0  0
  8 21  1  0  0  0  0
  9 22  1  0  0  0  0
  9 23  1  0  0  0  0
  9 24  1  0  0  0  0
 10 25  1  0  0  0  0
 10 26  1  0  0  0  0
 10 27  1  0  0  0  0
 12 28  1  0  0  0  0
M  END
> <FRED Chemgauss4 score>
-6.047757

$$$$
